
 ===================================================
  XFOIL Version 6.99
  Copyright (C) 2000   Mark Drela, Harold Youngren

  This software comes with ABSOLUTELY NO WARRANTY,
    subject to the GNU General Public License.

  Caveat computor
 ===================================================

 File  xfoil.def  not found

   QUIT    Exit program

  .OPER    Direct operating point(s)
  .MDES    Complex mapping design routine
  .QDES    Surface speed design routine
  .GDES    Geometry design routine

   SAVE f  Write airfoil to labeled coordinate file
   PSAV f  Write airfoil to plain coordinate file
   ISAV f  Write airfoil to ISES coordinate file
   MSAV f  Write airfoil to MSES coordinate file
   REVE    Reverse written-airfoil node ordering

   LOAD f  Read buffer airfoil from coordinate file
   NACA i  Set NACA 4,5-digit airfoil and buffer airfoil
   INTE    Set buffer airfoil by interpolating two airfoils
   NORM    Buffer airfoil normalization toggle
   XYCM rr Change CM reference location, currently  0.25000 0.00000

   BEND    Display structural properties of current airfoil

   PCOP    Set current-airfoil panel nodes directly from buffer airfoil points
   PANE    Set current-airfoil panel nodes ( 160 ) based on curvature
  .PPAR    Show/change paneling

  .PLOP    Plotting options

   WDEF f  Write  current-settings file
   RDEF f  Reread current-settings file
   NAME s  Specify new airfoil name
   NINC    Increment name version number

   Z       Zoom    | (available in all menus)
   U       Unzoom  | 

 XFOIL   c>  
 Plain airfoil file

Enter airfoil name   s>  
 Number of input coordinate points: 160
 Counterclockwise ordering
 Max thickness =     0.092800  at x =   0.356
 Max camber    =     0.013652  at x =   0.832

  LE  x,y  =  -0.00000  -0.00022  |   Chord =   1.00184
  TE  x,y  =   1.00184  -0.00021  |

 Current airfoil nodes set from buffer airfoil nodes ( 160 )

 XFOIL   c>   ITER command not recognized.  Type a "?" for list

 XFOIL   c>   200  command not recognized.  Type a "?" for list

 XFOIL   c>  
 XFOIL   c>  
 You are working with the buffer airfoil

.GDES   c>  
Enter flap hinge x location   r>  
  Top    surface:  y =  0.0373     y/t = 1.0
  Bottom surface:  y = -0.0170     y/t = 0.0

Enter flap hinge y location (or 999 to specify y/t)   r>  
 Flap hinge: x,y =  0.70000  0.00000

Enter flap deflection in degrees (+ down)   r>  
 Top breaks: x,y =    0.70258  0.03712      0.70258  0.03712
 Bot breaks: x,y =    0.70237 -0.01661      0.70266 -0.01656
 Max thickness =     0.092806  at x =   0.356
 Max camber    =     0.015970  at x =   0.802

.GDES   c>  
 Current airfoil nodes set from buffer airfoil nodes ( 163 )

.GDES   c>  
 XFOIL   c>  
 XFOIL   c>  
 XFOIL   c>  
.OPERi   c>  
.OPERi   c>  
 Sonic Cp =   -155.67      Sonic Q/Qinf =    13.904


.OPERi   c>  
 M  =    0.0657
 Re =    702349

.OPERv   c>  
 Polar  1 newly created for accumulation
 Airfoil archived with polar: oper                                            

Enter  polar save filename  OR  <return> for no file   s>  
 Polar save file will NOT be written

Enter  polar dump filename  OR  <return> for no file   s>  
 Polar dump file will NOT be written

 Polar accumulation enabled

.OPERva   c>   Calculating unit vorticity distributions ...
 Calculating wake trajectory ...
 Calculating source influence matrix ...

 Solving BL system ...

 Initializing BL ...
    side            1  ...
 MRCHUE: Inverse mode at  69     Hk =   4.062
 MRCHUE: Inverse mode at  70     Hk =   4.579
 MRCHUE: Inverse mode at  71     Hk =   5.071
 MRCHUE: Inverse mode at  72     Hk =   5.575
 MRCHUE: Inverse mode at  73     Hk =   6.072
 MRCHUE: Inverse mode at  74     Hk =   6.529
 MRCHUE: Inverse mode at  75     Hk =   6.941
 MRCHUE: Inverse mode at  76     Hk =   7.304
 MRCHUE: Inverse mode at  77     Hk =   7.646
 MRCHUE: Inverse mode at  78     Hk =   7.878
    side            2  ...
 MRCHUE: Inverse mode at  16     Hk =   4.792
 MRCHUE: Inverse mode at  17     Hk =   6.184
 MRCHUE: Inverse mode at  18     Hk =   7.668
 MRCHUE: Inverse mode at  19     Hk =   9.300
 MRCHUE: Inverse mode at  20     Hk =   5.329
 MRCHUE: Inverse mode at  21     Hk =   2.500
 MRCHUE: Inverse mode at  77     Hk =   2.500
 MRCHUE: Inverse mode at  78     Hk =   2.500
 MRCHUE: Inverse mode at  79     Hk =   2.500
 MRCHUE: Inverse mode at  80     Hk =   2.500

 Side 1 forced transition at x/c =  1.0000   78
 Side 2  free  transition at x/c =  0.0415   20
 idif Ue xi dudx           1  0.34379086      3.91149521E-03   87.892441    
 Uenew xinew           2  0.15248045      1.73485279E-03

   1   rms: 0.3724E+00   max: 0.2198E+01   D at   78  1   RLX: 0.511
       a = -5.000      CL = -0.4029
      Cm = -0.0556     CD =  0.00857   =>   CDf =  0.00579    CDp =  0.00279

 Side 1  free  transition at x/c =  0.9780   75
 Side 2  free  transition at x/c =  0.0391   21

   2   rms: 0.9154E-01   max: -.6326E+00   D at   77  1   RLX: 0.790
       a = -5.000      CL = -0.3697
      Cm = -0.0601     CD =  0.01049   =>   CDf =  0.00601    CDp =  0.00448

 Side 1  free  transition at x/c =  0.9764   75
 Side 2  free  transition at x/c =  0.0423   21

   3   rms: 0.3851E-01   max: -.3397E+00   D at   77  1
       a = -5.000      CL = -0.3450
      Cm = -0.0644     CD =  0.01006   =>   CDf =  0.00604    CDp =  0.00402

 Side 1  free  transition at x/c =  0.9782   75
 Side 2  free  transition at x/c =  0.0436   21

   4   rms: 0.3937E-02   max: -.3814E-01   T at   75  1
       a = -5.000      CL = -0.3443
      Cm = -0.0645     CD =  0.01008   =>   CDf =  0.00603    CDp =  0.00404

 Side 1  free  transition at x/c =  0.9789   75
 Side 2  free  transition at x/c =  0.0437   21

   5   rms: 0.1759E-03   max: -.1983E-02   D at   75  1
       a = -5.000      CL = -0.3443
      Cm = -0.0645     CD =  0.01007   =>   CDf =  0.00603    CDp =  0.00404

 Side 1  free  transition at x/c =  0.9789   75
 Side 2  free  transition at x/c =  0.0437   21

   6   rms: 0.4678E-05   max: 0.1487E-04   C at   81  2
       a = -5.000      CL = -0.3443
      Cm = -0.0645     CD =  0.01007   =>   CDf =  0.00603    CDp =  0.00404
 plradd ia,ip,cpol            1          76  9.55300033E-03

 Point added to stored polar  1
 Save file unspecified or not available
 Dump file unspecified or not available

.OPERva   c>  
.OPERva   c>  
.OPERva   c>   Calculating wake trajectory ...
 Calculating source influence matrix ...

 Solving BL system ...

 Side 1  free  transition at x/c =  0.9789   75
 Side 2  free  transition at x/c =  0.0437   21

   1   rms: 0.4931E-01   max: -.2106E+00   T at   21  2
       a = -4.750      CL = -0.3105
      Cm = -0.0659     CD =  0.00984   =>   CDf =  0.00603    CDp =  0.00380

 Side 1  free  transition at x/c =  0.9778   75
 Side 2  free  transition at x/c =  0.0484   22

   2   rms: 0.2078E-01   max: -.2091E+00   D at   21  2
       a = -4.750      CL = -0.3103
      Cm = -0.0661     CD =  0.00971   =>   CDf =  0.00603    CDp =  0.00369

 Side 1  free  transition at x/c =  0.9779   75
 Side 2  free  transition at x/c =  0.0538   22

   3   rms: 0.1438E-01   max: -.2814E+00   C at   22  2
       a = -4.750      CL = -0.3103
      Cm = -0.0661     CD =  0.00972   =>   CDf =  0.00598    CDp =  0.00374

 Side 1  free  transition at x/c =  0.9780   75
 Side 2  free  transition at x/c =  0.0537   22

   4   rms: 0.3233E-02   max: 0.7770E-01   C at   22  2
       a = -4.750      CL = -0.3103
      Cm = -0.0660     CD =  0.00973   =>   CDf =  0.00598    CDp =  0.00375

 Side 1  free  transition at x/c =  0.9780   75
 Side 2  free  transition at x/c =  0.0531   22

   5   rms: 0.4551E-04   max: -.9509E-03   C at   22  2
       a = -4.750      CL = -0.3103
      Cm = -0.0660     CD =  0.00973   =>   CDf =  0.00599    CDp =  0.00375
 plradd ia,ip,cpol            2          76  9.55300033E-03

 Point added to stored polar  1
 Save file unspecified or not available
 Dump file unspecified or not available

.OPERva   c>  
.OPERva   c>  
.OPERva   c>   Calculating wake trajectory ...
 Calculating source influence matrix ...

 Solving BL system ...

 Side 1  free  transition at x/c =  0.9780   75
 Side 2  free  transition at x/c =  0.0532   22

   1   rms: 0.8153E-01   max: -.1358E+01   C at   22  2   RLX: 0.368
       a = -4.500      CL = -0.2977
      Cm = -0.0666     CD =  0.00960   =>   CDf =  0.00602    CDp =  0.00359

 Side 1  free  transition at x/c =  0.9776   76
 Side 2  free  transition at x/c =  0.0615   22

   2   rms: 0.1086E+00   max: -.2066E+01   C at   22  2   RLX: 0.242
       a = -4.500      CL = -0.2920
      Cm = -0.0669     CD =  0.00948   =>   CDf =  0.00595    CDp =  0.00353

 Side 1  free  transition at x/c =  0.9774   76
 Side 2  free  transition at x/c =  0.0670   23

   3   rms: 0.6799E-01   max: -.8430E+00   C at   23  2   RLX: 0.593
       a = -4.500      CL = -0.2819
      Cm = -0.0675     CD =  0.00931   =>   CDf =  0.00593    CDp =  0.00339

 Side 1  free  transition at x/c =  0.9772   76
 Side 2  free  transition at x/c =  0.1097   26

   4   rms: 0.1217E-01   max: 0.7894E-01   D at   26  2
       a = -4.500      CL = -0.2755
      Cm = -0.0681     CD =  0.00913   =>   CDf =  0.00571    CDp =  0.00341

 Side 1  free  transition at x/c =  0.9771   76
 Side 2  free  transition at x/c =  0.1121   26

   5   rms: 0.6239E-03   max: 0.1032E-01   C at   26  2
       a = -4.500      CL = -0.2755
      Cm = -0.0681     CD =  0.00913   =>   CDf =  0.00569    CDp =  0.00344

 Side 1  free  transition at x/c =  0.9771   76
 Side 2  free  transition at x/c =  0.1118   26

   6   rms: 0.2610E-05   max: 0.3357E-04   D at   26  2
       a = -4.500      CL = -0.2755
      Cm = -0.0681     CD =  0.00913   =>   CDf =  0.00569    CDp =  0.00343
 plradd ia,ip,cpol            3          77  9.55300033E-03

 Point added to stored polar  1
 Save file unspecified or not available
 Dump file unspecified or not available

.OPERva   c>  
.OPERva   c>  
.OPERva   c>   Calculating wake trajectory ...
 Calculating source influence matrix ...

 Solving BL system ...

 Side 1  free  transition at x/c =  0.9771   76
 Side 2  free  transition at x/c =  0.1118   26

   1   rms: 0.1146E+00   max: -.1638E+01   C at   26  2   RLX: 0.305
       a = -4.250      CL = -0.2648
      Cm = -0.0687     CD =  0.00896   =>   CDf =  0.00569    CDp =  0.00326

 Side 1  free  transition at x/c =  0.9769   76
 Side 2  free  transition at x/c =  0.1211   26

   2   rms: 0.3939E-01   max: -.2488E+00   C at   26  2
       a = -4.250      CL = -0.2401
      Cm = -0.0699     CD =  0.00892   =>   CDf =  0.00566    CDp =  0.00326

 Side 1  free  transition at x/c =  0.9763   75
 Side 2  free  transition at x/c =  0.1579   29

   3   rms: 0.1555E+01   max: 0.1615E+02   T at   75  1   RLX: 0.041
       a = -4.250      CL = -0.2750
      Cm = -0.0626     CD =  0.00891   =>   CDf =  0.00551    CDp =  0.00339

 Side 1  free  transition at x/c =  0.9643   74
 Side 2  free  transition at x/c =  0.1395   28

   4   rms: 0.2464E+00   max: -.2325E+01   T at   74  1   RLX: 0.215
       a = -4.250      CL = -0.2464
      Cm = -0.0684     CD =  0.00965   =>   CDf =  0.00560    CDp =  0.00406

 Side 1  free  transition at x/c =  0.9765   76
 Side 2  free  transition at x/c =  0.1518   28

   5   rms: 0.1572E-01   max: -.2774E+00   C at   28  2
       a = -4.250      CL = -0.2400
      Cm = -0.0701     CD =  0.00874   =>   CDf =  0.00554    CDp =  0.00320

 Side 1  free  transition at x/c =  0.9764   76
 Side 2  free  transition at x/c =  0.1584   29

   6   rms: 0.3885E-02   max: 0.7226E-01   C at   29  2
       a = -4.250      CL = -0.2401
      Cm = -0.0701     CD =  0.00872   =>   CDf =  0.00549    CDp =  0.00323

 Side 1  free  transition at x/c =  0.9764   76
 Side 2  free  transition at x/c =  0.1564   29

   7   rms: 0.6811E-04   max: -.1056E-02   C at   29  2
       a = -4.250      CL = -0.2401
      Cm = -0.0701     CD =  0.00872   =>   CDf =  0.00550    CDp =  0.00322
 plradd ia,ip,cpol            4          77  9.55300033E-03

 Point added to stored polar  1
 Save file unspecified or not available
 Dump file unspecified or not available

.OPERva   c>  
.OPERva   c>  
.OPERva   c>   Calculating wake trajectory ...
 Calculating source influence matrix ...

 Solving BL system ...

 Side 1  free  transition at x/c =  0.9764   76
 Side 2  free  transition at x/c =  0.1564   29

   1   rms: 0.1072E+00   max: -.1699E+01   C at   29  2   RLX: 0.294
       a = -4.000      CL = -0.2292
      Cm = -0.0708     CD =  0.00857   =>   CDf =  0.00550    CDp =  0.00307

 Side 1  free  transition at x/c =  0.9762   75
 Side 2  free  transition at x/c =  0.1675   29

   2   rms: 0.2507E+00   max: 0.3059E+01   T at   75  1   RLX: 0.216
       a = -4.000      CL = -0.2571
      Cm = -0.0636     CD =  0.00866   =>   CDf =  0.00546    CDp =  0.00319

 Side 1  free  transition at x/c =  0.9639   74
 Side 2  free  transition at x/c =  0.1519   28

   3   rms: 0.1772E+00   max: -.2033E+01   C at   28  2   RLX: 0.246
       a = -4.000      CL = -0.2299
      Cm = -0.0683     CD =  0.00951   =>   CDf =  0.00554    CDp =  0.00396

 Side 1  free  transition at x/c =  0.9733   75
 Side 2  free  transition at x/c =  0.1774   30

   4   rms: 0.6842E-01   max: -.1394E+01   C at   30  2   RLX: 0.359
       a = -4.000      CL = -0.2223
      Cm = -0.0698     CD =  0.00826   =>   CDf =  0.00542    CDp =  0.00284

 Side 1  free  transition at x/c =  0.9733   75
 Side 2  free  transition at x/c =  0.1866   31

   5   rms: 0.5006E-01   max: -.9176E+00   C at   31  2   RLX: 0.545
       a = -4.000      CL = -0.2157
      Cm = -0.0704     CD =  0.00824   =>   CDf =  0.00538    CDp =  0.00285

 Side 1  free  transition at x/c =  0.9730   75
 Side 2  free  transition at x/c =  0.1991   31

   6   rms: 0.3442E-01   max: -.7950E+00   C at   31  2   RLX: 0.629
       a = -4.000      CL = -0.2126
      Cm = -0.0706     CD =  0.00826   =>   CDf =  0.00533    CDp =  0.00293

 Side 1  free  transition at x/c =  0.9727   75
 Side 2  free  transition at x/c =  0.2094   32

   7   rms: 0.1481E-01   max: -.3389E+00   C at   32  2
       a = -4.000      CL = -0.2112
      Cm = -0.0707     CD =  0.00822   =>   CDf =  0.00528    CDp =  0.00294

 Side 1  free  transition at x/c =  0.9725   75
 Side 2  free  transition at x/c =  0.2161   33

   8   rms: 0.1411E-02   max: -.2826E-01   C at   33  2
       a = -4.000      CL = -0.2112
      Cm = -0.0707     CD =  0.00822   =>   CDf =  0.00526    CDp =  0.00296

 Side 1  free  transition at x/c =  0.9724   75
 Side 2  free  transition at x/c =  0.2168   33

   9   rms: 0.1175E-04   max: 0.2200E-03   C at   33  2
       a = -4.000      CL = -0.2112
      Cm = -0.0707     CD =  0.00822   =>   CDf =  0.00526    CDp =  0.00297
 plradd ia,ip,cpol            5          77  1.23370001E-02

 Point added to stored polar  1
 Save file unspecified or not available
 Dump file unspecified or not available

.OPERva   c>  
.OPERva   c>  
.OPERva   c>   Calculating wake trajectory ...
 Calculating source influence matrix ...

 Solving BL system ...

 Side 1  free  transition at x/c =  0.9724   75
 Side 2  free  transition at x/c =  0.2167   33

   1   rms: 0.1852E+00   max: -.3610E+01   C at   33  2   RLX: 0.139
       a = -3.750      CL = -0.2065
      Cm = -0.0710     CD =  0.00811   =>   CDf =  0.00526    CDp =  0.00285

 Side 1  free  transition at x/c =  0.9721   75
 Side 2  free  transition at x/c =  0.2292   33

   2   rms: 0.2008E+00   max: -.4517E+01   C at   33  2   RLX: 0.111
       a = -3.750      CL = -0.2030
      Cm = -0.0712     CD =  0.00807   =>   CDf =  0.00521    CDp =  0.00286

 Side 1  free  transition at x/c =  0.9718   76
 Side 2  free  transition at x/c =  0.2402   33

   3   rms: 0.2236E+00   max: -.4140E+01   C at   33  2   RLX: 0.121
       a = -3.750      CL = -0.1998
      Cm = -0.0714     CD =  0.00798   =>   CDf =  0.00517    CDp =  0.00282

 Side 1  free  transition at x/c =  0.9716   76
 Side 2  free  transition at x/c =  0.2505   34

   4   rms: 0.1648E+00   max: -.3511E+01   C at   34  2   RLX: 0.142
       a = -3.750      CL = -0.1963
      Cm = -0.0716     CD =  0.00790   =>   CDf =  0.00513    CDp =  0.00277

 Side 1  free  transition at x/c =  0.9714   76
 Side 2  free  transition at x/c =  0.2616   34

   5   rms: 0.1674E+00   max: -.3741E+01   C at   34  2   RLX: 0.134
       a = -3.750      CL = -0.1934
      Cm = -0.0718     CD =  0.00786   =>   CDf =  0.00508    CDp =  0.00277

 Side 1  free  transition at x/c =  0.9713   76
 Side 2  free  transition at x/c =  0.2729   35

   6   rms: 0.1376E+00   max: -.3064E+01   C at   35  2   RLX: 0.163
       a = -3.750      CL = -0.1906
      Cm = -0.0720     CD =  0.00777   =>   CDf =  0.00504    CDp =  0.00274

 Side 1  free  transition at x/c =  0.9711   76
 Side 2  free  transition at x/c =  0.2856   36

   7   rms: 0.1124E+00   max: -.2467E+01   C at   36  2   RLX: 0.203
       a = -3.750      CL = -0.1876
      Cm = -0.0722     CD =  0.00769   =>   CDf =  0.00498    CDp =  0.00270

 Side 1  free  transition at x/c =  0.9709   76
 Side 2  free  transition at x/c =  0.2959   37

   8   rms: 0.8386E-01   max: -.1671E+01   C at   37  2   RLX: 0.299
       a = -3.750      CL = -0.1839
      Cm = -0.0725     CD =  0.00760   =>   CDf =  0.00495    CDp =  0.00265

 MRCHDU: Convergence failed at  76  side 1    Res =  0.1649E-04
 Side 1  free  transition at x/c =  0.9707   76
 Side 2  free  transition at x/c =  0.3080   37

   9   rms: 0.6882E-01   max: -.1516E+01   C at   37  2   RLX: 0.330
       a = -3.750      CL = -0.1810
      Cm = -0.0727     CD =  0.00756   =>   CDf =  0.00490    CDp =  0.00266

 Side 1  free  transition at x/c =  0.9706   76
 Side 2  free  transition at x/c =  0.3201   38

  10   rms: 0.4186E-01   max: -.9140E+00   C at   38  2   RLX: 0.547
       a = -3.750      CL = -0.1781
      Cm = -0.0729     CD =  0.00747   =>   CDf =  0.00485    CDp =  0.00262
 VISCAL:  Convergence failed

.OPERva   c>  
.OPERva   c>  
.OPERva   c>   Calculating wake trajectory ...
 Calculating source influence matrix ...

 Solving BL system ...

 Side 1  free  transition at x/c =  0.9704   76
 Side 2  free  transition at x/c =  0.3344   39

   1   rms: 0.2300E+00   max: -.4904E+01   C at   39  2   RLX: 0.102
       a = -3.500      CL = -0.1742
      Cm = -0.0732     CD =  0.00738   =>   CDf =  0.00480    CDp =  0.00258

 Side 1  free  transition at x/c =  0.9702   76
 Side 2  free  transition at x/c =  0.3452   40

   2   rms: 0.1994E+00   max: -.3988E+01   C at   40  2   RLX: 0.125
       a = -3.500      CL = -0.1695
      Cm = -0.0735     CD =  0.00729   =>   CDf =  0.00476    CDp =  0.00253

 Side 1  free  transition at x/c =  0.9700   76
 Side 2  free  transition at x/c =  0.3568   40

   3   rms: 0.1814E+00   max: -.3854E+01   C at   40  2   RLX: 0.130
       a = -3.500      CL = -0.1652
      Cm = -0.0738     CD =  0.00725   =>   CDf =  0.00472    CDp =  0.00253

 Side 1  free  transition at x/c =  0.9698   76
 Side 2  free  transition at x/c =  0.3703   41

   4   rms: 0.1956E+00   max: -.4169E+01   C at   41  2   RLX: 0.120
       a = -3.500      CL = -0.1620
      Cm = -0.0740     CD =  0.00716   =>   CDf =  0.00466    CDp =  0.00250

 Side 1  free  transition at x/c =  0.9697   76
 Side 2  free  transition at x/c =  0.3825   42

   5   rms: 0.1744E+00   max: -.3715E+01   C at   42  2   RLX: 0.135
       a = -3.500      CL = -0.1588
      Cm = -0.0742     CD =  0.00708   =>   CDf =  0.00461    CDp =  0.00247

 Side 1  free  transition at x/c =  0.9696   76
 Side 2  free  transition at x/c =  0.3956   43

   6   rms: 0.1350E+00   max: -.2825E+01   C at   43  2   RLX: 0.177
       a = -3.500      CL = -0.1552
      Cm = -0.0745     CD =  0.00700   =>   CDf =  0.00456    CDp =  0.00243

 Side 1  free  transition at x/c =  0.9694   76
 Side 2  free  transition at x/c =  0.4067   44

   7   rms: 0.1033E+00   max: -.1989E+01   C at   44  2   RLX: 0.251
       a = -3.500      CL = -0.1508
      Cm = -0.0748     CD =  0.00692   =>   CDf =  0.00453    CDp =  0.00239

 Side 1  free  transition at x/c =  0.9693   76
 Side 2  free  transition at x/c =  0.4190   44

   8   rms: 0.7914E-01   max: -.1662E+01   C at   44  2   RLX: 0.301
       a = -3.500      CL = -0.1469
      Cm = -0.0751     CD =  0.00688   =>   CDf =  0.00448    CDp =  0.00240

 Side 1  free  transition at x/c =  0.9691   76
 Side 2  free  transition at x/c =  0.4334   45

   9   rms: 0.5525E-01   max: -.1154E+01   C at   45  2   RLX: 0.433
       a = -3.500      CL = -0.1434
      Cm = -0.0753     CD =  0.00681   =>   CDf =  0.00443    CDp =  0.00238

 Side 1  free  transition at x/c =  0.9690   76
 Side 2  free  transition at x/c =  0.4478   46

  10   rms: 0.2305E-01   max: -.4677E+00   C at   46  2
       a = -3.500      CL = -0.1389
      Cm = -0.0755     CD =  0.00674   =>   CDf =  0.00438    CDp =  0.00237
 VISCAL:  Convergence failed

.OPERva   c>  
.OPERva   c>  
.OPERva   c>   Calculating wake trajectory ...
 Calculating source influence matrix ...

 Solving BL system ...

 Side 1  free  transition at x/c =  0.9688   76
 Side 2  free  transition at x/c =  0.4642   47

   1   rms: 0.8960E-01   max: -.1530E+01   C at   47  2   RLX: 0.327
       a = -3.250      CL = -0.1268
      Cm = -0.0761     CD =  0.00665   =>   CDf =  0.00432    CDp =  0.00233

 Side 1  free  transition at x/c =  0.9684   76
 Side 2  free  transition at x/c =  0.4945   49

   2   rms: 0.4542E-01   max: -.5717E+00   C at   49  2   RLX: 0.875
       a = -3.250      CL = -0.1051
      Cm = -0.0773     CD =  0.00650   =>   CDf =  0.00422    CDp =  0.00228

 Side 1  free  transition at x/c =  0.9678   76
 Side 2  free  transition at x/c =  0.5240   51

   3   rms: 0.9769E-02   max: 0.1508E+00   C at   51  2
       a = -3.250      CL = -0.1020
      Cm = -0.0775     CD =  0.00646   =>   CDf =  0.00412    CDp =  0.00234

 Side 1  free  transition at x/c =  0.9676   76
 Side 2  free  transition at x/c =  0.5193   51

   4   rms: 0.2819E-03   max: -.5104E-02   D at   51  2
       a = -3.250      CL = -0.1019
      Cm = -0.0775     CD =  0.00647   =>   CDf =  0.00415    CDp =  0.00232

 Side 1  free  transition at x/c =  0.9676   76
 Side 2  free  transition at x/c =  0.5192   51

   5   rms: 0.2399E-05   max: 0.2748E-04   C at   51  2
       a = -3.250      CL = -0.1019
      Cm = -0.0775     CD =  0.00647   =>   CDf =  0.00415    CDp =  0.00232
 plradd ia,ip,cpol            6          78  1.23370001E-02

 Point added to stored polar  1
 Save file unspecified or not available
 Dump file unspecified or not available

.OPERva   c>  
.OPERva   c>  
.OPERva   c>   Calculating wake trajectory ...
 Calculating source influence matrix ...

 Solving BL system ...

 Side 1  free  transition at x/c =  0.9676   76
 Side 2  free  transition at x/c =  0.5192   51

   1   rms: 0.7466E-01   max: -.9559E+00   C at   51  2   RLX: 0.523
       a = -3.000      CL = -0.0827
      Cm = -0.0785     CD =  0.00636   =>   CDf =  0.00413    CDp =  0.00222

 Side 1  free  transition at x/c =  0.9670   77
 Side 2  free  transition at x/c =  0.5309   50

   2   rms: 0.3134E-01   max: -.2115E+00   T at    2  1
       a = -3.000      CL = -0.0638
      Cm = -0.0796     CD =  0.00641   =>   CDf =  0.00419    CDp =  0.00222

 Side 1  free  transition at x/c =  0.9667   77
 Side 2  free  transition at x/c =  0.5631   53

   3   rms: 0.1547E-01   max: 0.2177E+00   C at   53  2
       a = -3.000      CL = -0.0642
      Cm = -0.0796     CD =  0.00633   =>   CDf =  0.00404    CDp =  0.00229

 Side 1  free  transition at x/c =  0.9667   77
 Side 2  free  transition at x/c =  0.5545   52

   4   rms: 0.3181E-02   max: -.5528E-01   D at   54  2
       a = -3.000      CL = -0.0643
      Cm = -0.0796     CD =  0.00631   =>   CDf =  0.00406    CDp =  0.00226

 Side 1  free  transition at x/c =  0.9667   77
 Side 2  free  transition at x/c =  0.5529   52

   5   rms: 0.6796E-04   max: -.1080E-02   D at   54  2
       a = -3.000      CL = -0.0643
      Cm = -0.0796     CD =  0.00631   =>   CDf =  0.00406    CDp =  0.00225
 plradd ia,ip,cpol            7          79  1.23370001E-02

 Point added to stored polar  1
 Save file unspecified or not available
 Dump file unspecified or not available

.OPERva   c>  
.OPERva   c>  
.OPERva   c>   Calculating wake trajectory ...
 Calculating source influence matrix ...

 Solving BL system ...

 Side 1  free  transition at x/c =  0.9667   77
 Side 2  free  transition at x/c =  0.5529   52

   1   rms: 0.6000E-01   max: -.4771E+00   C at   52  2
       a = -2.750      CL = -0.0259
      Cm = -0.0818     CD =  0.00619   =>   CDf =  0.00406    CDp =  0.00212

 Side 1  free  transition at x/c =  0.9667   77
 Side 2  free  transition at x/c =  0.5752   53

   2   rms: 0.8901E-02   max: 0.5728E-01   D at   78  1
       a = -2.750      CL = -0.0267
      Cm = -0.0816     CD =  0.00622   =>   CDf =  0.00403    CDp =  0.00220

 Side 1  free  transition at x/c =  0.9659   76
 Side 2  free  transition at x/c =  0.5779   53

   3   rms: 0.1264E-01   max: -.1211E+00   T at   76  1
       a = -2.750      CL = -0.0181
      Cm = -0.0835     CD =  0.00620   =>   CDf =  0.00402    CDp =  0.00218

 Side 1  free  transition at x/c =  0.9702   77
 Side 2  free  transition at x/c =  0.5803   54

   4   rms: 0.4236E-01   max: 0.3091E+00   D at   78  1
       a = -2.750      CL = -0.0262
      Cm = -0.0817     CD =  0.00615   =>   CDf =  0.00401    CDp =  0.00214

 Side 1  free  transition at x/c =  0.9661   77
 Side 2  free  transition at x/c =  0.5781   53

   5   rms: 0.1863E-02   max: -.3139E-01   D at   77  1
       a = -2.750      CL = -0.0268
      Cm = -0.0816     CD =  0.00622   =>   CDf =  0.00402    CDp =  0.00220

 Side 1  free  transition at x/c =  0.9659   76
 Side 2  free  transition at x/c =  0.5780   53

   6   rms: 0.1272E-01   max: -.1219E+00   T at   76  1
       a = -2.750      CL = -0.0181
      Cm = -0.0835     CD =  0.00620   =>   CDf =  0.00402    CDp =  0.00218

 Side 1  free  transition at x/c =  0.9703   77
 Side 2  free  transition at x/c =  0.5803   54

   7   rms: 0.4259E-01   max: 0.3108E+00   D at   78  1
       a = -2.750      CL = -0.0262
      Cm = -0.0817     CD =  0.00615   =>   CDf =  0.00401    CDp =  0.00214

 Side 1  free  transition at x/c =  0.9661   77
 Side 2  free  transition at x/c =  0.5781   53

   8   rms: 0.1897E-02   max: -.3159E-01   D at   77  1
       a = -2.750      CL = -0.0268
      Cm = -0.0816     CD =  0.00622   =>   CDf =  0.00402    CDp =  0.00220

 Side 1  free  transition at x/c =  0.9659   76
 Side 2  free  transition at x/c =  0.5780   53

   9   rms: 0.1273E-01   max: -.1220E+00   T at   76  1
       a = -2.750      CL = -0.0181
      Cm = -0.0835     CD =  0.00620   =>   CDf =  0.00402    CDp =  0.00218

 Side 1  free  transition at x/c =  0.9703   77
 Side 2  free  transition at x/c =  0.5803   54

  10   rms: 0.4262E-01   max: 0.3110E+00   D at   78  1
       a = -2.750      CL = -0.0262
      Cm = -0.0817     CD =  0.00615   =>   CDf =  0.00401    CDp =  0.00214
 VISCAL:  Convergence failed

.OPERva   c>  
.OPERva   c>  
.OPERva   c>   Calculating wake trajectory ...
 Calculating source influence matrix ...

 Solving BL system ...

 Side 1  free  transition at x/c =  0.9661   77
 Side 2  free  transition at x/c =  0.5781   53

   1   rms: 0.5510E-01   max: 0.2158E+00   C at   54  2
       a = -2.500      CL =  0.0101
      Cm = -0.0834     CD =  0.00621   =>   CDf =  0.00402    CDp =  0.00219

 Side 1  free  transition at x/c =  0.9647   76
 Side 2  free  transition at x/c =  0.5982   55

   2   rms: 0.3697E-01   max: 0.2978E+00   T at   76  1
       a = -2.500      CL = -0.0139
      Cm = -0.0781     CD =  0.00624   =>   CDf =  0.00396    CDp =  0.00228

 Side 1  free  transition at x/c =  0.9552   76
 Side 2  free  transition at x/c =  0.5935   54

   3   rms: 0.3644E-01   max: -.2555E+00   D at   79  1
       a = -2.500      CL = -0.0036
      Cm = -0.0804     CD =  0.00618   =>   CDf =  0.00399    CDp =  0.00219

 Side 1  free  transition at x/c =  0.9592   76
 Side 2  free  transition at x/c =  0.5953   55

   4   rms: 0.1259E-01   max: -.8836E-01   D at   80  1
       a = -2.500      CL =  0.0002
      Cm = -0.0812     CD =  0.00618   =>   CDf =  0.00399    CDp =  0.00219

 Side 1  free  transition at x/c =  0.9610   76
 Side 2  free  transition at x/c =  0.5958   55

   5   rms: 0.4087E-03   max: -.3434E-02   D at   76  1
       a = -2.500      CL = -0.0001
      Cm = -0.0811     CD =  0.00618   =>   CDf =  0.00397    CDp =  0.00221

 Side 1  free  transition at x/c =  0.9610   76
 Side 2  free  transition at x/c =  0.5958   55

   6   rms: 0.4965E-05   max: -.3608E-04   D at   77  1
       a = -2.500      CL = -0.0001
      Cm = -0.0811     CD =  0.00618   =>   CDf =  0.00398    CDp =  0.00221
 plradd ia,ip,cpol            8          79  1.23370001E-02

 Point added to stored polar  1
 Save file unspecified or not available
 Dump file unspecified or not available

.OPERva   c>  
.OPERva   c>  
.OPERva   c>   Calculating wake trajectory ...
 Calculating source influence matrix ...

 Solving BL system ...

 Side 1  free  transition at x/c =  0.9610   76
 Side 2  free  transition at x/c =  0.5958   55

   1   rms: 0.5308E-01   max: 0.2857E+00   D at   55  2
       a = -2.250      CL =  0.0334
      Cm = -0.0822     CD =  0.00609   =>   CDf =  0.00394    CDp =  0.00214

 Side 1  free  transition at x/c =  0.9583   77
 Side 2  free  transition at x/c =  0.6062   54

   2   rms: 0.1183E-01   max: -.1312E+00   D at   54  2
       a = -2.250      CL =  0.0346
      Cm = -0.0824     CD =  0.00613   =>   CDf =  0.00400    CDp =  0.00212

 Side 1  free  transition at x/c =  0.9587   77
 Side 2  free  transition at x/c =  0.6105   55

   3   rms: 0.1275E-02   max: -.2344E-01   D at   54  2
       a = -2.250      CL =  0.0345
      Cm = -0.0824     CD =  0.00613   =>   CDf =  0.00397    CDp =  0.00216

 Side 1  free  transition at x/c =  0.9587   77
 Side 2  free  transition at x/c =  0.6101   55

   4   rms: 0.4923E-04   max: -.5507E-03   D at   56  2
       a = -2.250      CL =  0.0345
      Cm = -0.0824     CD =  0.00613   =>   CDf =  0.00396    CDp =  0.00216
 plradd ia,ip,cpol            9          80  1.23370001E-02

 Point added to stored polar  1
 Save file unspecified or not available
 Dump file unspecified or not available

.OPERva   c>  
.OPERva   c>  
.OPERva   c>   Calculating wake trajectory ...
 Calculating source influence matrix ...

 Solving BL system ...

 Side 1  free  transition at x/c =  0.9587   77
 Side 2  free  transition at x/c =  0.6100   55

   1   rms: 0.5234E-01   max: 0.2733E+00   D at   55  2
       a = -2.000      CL =  0.0687
      Cm = -0.0836     CD =  0.00603   =>   CDf =  0.00396    CDp =  0.00206

 Side 1  free  transition at x/c =  0.9557   77
 Side 2  free  transition at x/c =  0.6159   55

   2   rms: 0.1673E-01   max: -.1871E+00   D at   55  2
       a = -2.000      CL =  0.0698
      Cm = -0.0838     CD =  0.00604   =>   CDf =  0.00397    CDp =  0.00207

 Side 1  free  transition at x/c =  0.9567   77
 Side 2  free  transition at x/c =  0.6205   55

   3   rms: 0.1461E-02   max: -.1706E-01   D at   57  2
       a = -2.000      CL =  0.0697
      Cm = -0.0838     CD =  0.00605   =>   CDf =  0.00392    CDp =  0.00213

 Side 1  free  transition at x/c =  0.9566   77
 Side 2  free  transition at x/c =  0.6197   55

   4   rms: 0.4096E-04   max: -.5500E-03   C at   55  2
       a = -2.000      CL =  0.0697
      Cm = -0.0838     CD =  0.00605   =>   CDf =  0.00393    CDp =  0.00212
 plradd ia,ip,cpol           10          80  1.56670008E-02

 Point added to stored polar  1
 Save file unspecified or not available
 Dump file unspecified or not available

.OPERva   c>  
.OPERva   c>  
.OPERva   c>   Calculating wake trajectory ...
 Calculating source influence matrix ...

 Solving BL system ...

 Side 1  free  transition at x/c =  0.9566   77
 Side 2  free  transition at x/c =  0.6197   55

   1   rms: 0.4862E-01   max: -.1354E+00   T at   55  2
       a = -1.750      CL =  0.1055
      Cm = -0.0853     CD =  0.00599   =>   CDf =  0.00393    CDp =  0.00206

 Side 1  free  transition at x/c =  0.9545   76
 Side 2  free  transition at x/c =  0.6297   56

   2   rms: 0.6343E-02   max: 0.7693E-01   D at   56  2
       a = -1.750      CL =  0.1085
      Cm = -0.0860     CD =  0.00597   =>   CDf =  0.00391    CDp =  0.00206

 Side 1  free  transition at x/c =  0.9561   77
 Side 2  free  transition at x/c =  0.6293   56

   3   rms: 0.1134E-01   max: 0.8411E-01   D at   77  1
       a = -1.750      CL =  0.1059
      Cm = -0.0854     CD =  0.00598   =>   CDf =  0.00391    CDp =  0.00206

 Side 1  free  transition at x/c =  0.9548   77
 Side 2  free  transition at x/c =  0.6290   56

   4   rms: 0.6645E-03   max: -.7256E-02   D at   80  1
       a = -1.750      CL =  0.1057
      Cm = -0.0853     CD =  0.00598   =>   CDf =  0.00392    CDp =  0.00207

 Side 1  free  transition at x/c =  0.9547   77
 Side 2  free  transition at x/c =  0.6290   56

   5   rms: 0.7084E-05   max: -.9207E-04   D at   80  1
       a = -1.750      CL =  0.1056
      Cm = -0.0853     CD =  0.00598   =>   CDf =  0.00392    CDp =  0.00207
 plradd ia,ip,cpol           11          80  1.56670008E-02

 Point added to stored polar  1
 Save file unspecified or not available
 Dump file unspecified or not available

.OPERva   c>  
.OPERva   c>  
.OPERva   c>   Calculating wake trajectory ...
 Calculating source influence matrix ...

 Solving BL system ...

 Side 1  free  transition at x/c =  0.9547   77
 Side 2  free  transition at x/c =  0.6290   56

   1   rms: 0.5278E-01   max: 0.2097E+00   D at   56  2
       a = -1.500      CL =  0.1419
      Cm = -0.0869     CD =  0.00591   =>   CDf =  0.00388    CDp =  0.00203

 Side 1  free  transition at x/c =  0.9524   77
 Side 2  free  transition at x/c =  0.6367   55

   2   rms: 0.2227E-01   max: 0.1407E+00   T at   77  1
       a = -1.500      CL =  0.1276
      Cm = -0.0838     CD =  0.00599   =>   CDf =  0.00392    CDp =  0.00208

 Side 1  free  transition at x/c =  0.9459   77
 Side 2  free  transition at x/c =  0.6379   55

   3   rms: 0.1072E-01   max: -.8519E-01   D at   78  1
       a = -1.500      CL =  0.1333
      Cm = -0.0850     CD =  0.00596   =>   CDf =  0.00390    CDp =  0.00206

 Side 1  free  transition at x/c =  0.9483   77
 Side 2  free  transition at x/c =  0.6381   55

   4   rms: 0.9025E-03   max: -.1038E-01   D at   78  1
       a = -1.500      CL =  0.1327
      Cm = -0.0849     CD =  0.00596   =>   CDf =  0.00390    CDp =  0.00206

 Side 1  free  transition at x/c =  0.9483   77
 Side 2  free  transition at x/c =  0.6381   55

   5   rms: 0.5724E-05   max: 0.1217E-03   D at   78  1
       a = -1.500      CL =  0.1327
      Cm = -0.0849     CD =  0.00596   =>   CDf =  0.00390    CDp =  0.00206
 plradd ia,ip,cpol           12          81  7.93579966E-02

 Point added to stored polar  1
 Save file unspecified or not available
 Dump file unspecified or not available

.OPERva   c>  
.OPERva   c>  
.OPERva   c>   Calculating wake trajectory ...
 Calculating source influence matrix ...

 Solving BL system ...

 Side 1  free  transition at x/c =  0.9483   77
 Side 2  free  transition at x/c =  0.6381   55

   1   rms: 0.4711E-01   max: -.1547E+00   T at   55  2
       a = -1.250      CL =  0.1645
      Cm = -0.0854     CD =  0.00593   =>   CDf =  0.00390    CDp =  0.00203

 Side 1  free  transition at x/c =  0.9416   76
 Side 2  free  transition at x/c =  0.6455   56

   2   rms: 0.1748E-01   max: -.1715E+00   D at   77  1
       a = -1.250      CL =  0.1730
      Cm = -0.0872     CD =  0.00584   =>   CDf =  0.00389    CDp =  0.00195

 Side 1  free  transition at x/c =  0.9483   77
 Side 2  free  transition at x/c =  0.6457   56

   3   rms: 0.2726E-01   max: 0.2298E+00   C at   77  1
       a = -1.250      CL =  0.1705
      Cm = -0.0867     CD =  0.00581   =>   CDf =  0.00387    CDp =  0.00195

 Side 1  free  transition at x/c =  0.9452   77
 Side 2  free  transition at x/c =  0.6455   56

   4   rms: 0.7592E-02   max: -.6432E-01   D at   81  1
       a = -1.250      CL =  0.1668
      Cm = -0.0859     CD =  0.00587   =>   CDf =  0.00387    CDp =  0.00200

 Side 1  free  transition at x/c =  0.9437   77
 Side 2  free  transition at x/c =  0.6453   56

   5   rms: 0.6337E-03   max: -.6277E-02   D at   77  1
       a = -1.250      CL =  0.1663
      Cm = -0.0858     CD =  0.00588   =>   CDf =  0.00388    CDp =  0.00199

 Side 1  free  transition at x/c =  0.9436   77
 Side 2  free  transition at x/c =  0.6453   56

   6   rms: 0.3129E-05   max: -.3076E-04   D at   82  1
       a = -1.250      CL =  0.1663
      Cm = -0.0858     CD =  0.00588   =>   CDf =  0.00388    CDp =  0.00199
 plradd ia,ip,cpol           13          81  0.10380200    

 Point added to stored polar  1
 Save file unspecified or not available
 Dump file unspecified or not available

.OPERva   c>  
.OPERva   c>  
.OPERva   c>   Calculating wake trajectory ...
 Calculating source influence matrix ...

 Solving BL system ...

 Side 1  free  transition at x/c =  0.9436   77
 Side 2  free  transition at x/c =  0.6453   56

   1   rms: 0.5261E-01   max: 0.1583E+00   D at   57  2
       a = -1.000      CL =  0.2008
      Cm = -0.0869     CD =  0.00578   =>   CDf =  0.00388    CDp =  0.00190

 Side 1  free  transition at x/c =  0.9401   76
 Side 2  free  transition at x/c =  0.6524   56

   2   rms: 0.1233E-01   max: 0.1278E+00   D at   77  1
       a = -1.000      CL =  0.1930
      Cm = -0.0852     CD =  0.00586   =>   CDf =  0.00387    CDp =  0.00199

 Side 1  free  transition at x/c =  0.9353   76
 Side 2  free  transition at x/c =  0.6525   56

   3   rms: 0.3806E-02   max: -.3484E-01   D at   77  1
       a = -1.000      CL =  0.1949
      Cm = -0.0856     CD =  0.00585   =>   CDf =  0.00387    CDp =  0.00198

 Side 1  free  transition at x/c =  0.9363   76
 Side 2  free  transition at x/c =  0.6526   56

   4   rms: 0.1392E-03   max: -.9842E-03   D at   82  1
       a = -1.000      CL =  0.1948
      Cm = -0.0856     CD =  0.00585   =>   CDf =  0.00387    CDp =  0.00198

 Side 1  free  transition at x/c =  0.9363   76
 Side 2  free  transition at x/c =  0.6526   56

   5   rms: 0.1122E-05   max: -.1022E-04   D at   56  2
       a = -1.000      CL =  0.1948
      Cm = -0.0856     CD =  0.00585   =>   CDf =  0.00387    CDp =  0.00198
 plradd ia,ip,cpol           14          81  0.10380200    

 Point added to stored polar  1
 Save file unspecified or not available
 Dump file unspecified or not available

.OPERva   c>  
.OPERva   c>  
.OPERva   c>   Calculating wake trajectory ...
 Calculating source influence matrix ...

 Solving BL system ...

 Side 1  free  transition at x/c =  0.9363   76
 Side 2  free  transition at x/c =  0.6526   56

   1   rms: 0.4602E-01   max: -.1597E+00   T at   56  2
       a = -0.750      CL =  0.2243
      Cm = -0.0856     CD =  0.00583   =>   CDf =  0.00382    CDp =  0.00201

 Side 1  free  transition at x/c =  0.9303   77
 Side 2  free  transition at x/c =  0.6591   56

   2   rms: 0.4951E-02   max: -.3412E-01   D at   55  2
       a = -0.750      CL =  0.2258
      Cm = -0.0860     CD =  0.00581   =>   CDf =  0.00388    CDp =  0.00193

 Side 1  free  transition at x/c =  0.9310   77
 Side 2  free  transition at x/c =  0.6597   56

   3   rms: 0.7478E-03   max: -.6940E-02   D at    6  1
       a = -0.750      CL =  0.2256
      Cm = -0.0859     CD =  0.00581   =>   CDf =  0.00386    CDp =  0.00196

 Side 1  free  transition at x/c =  0.9309   77
